129556
  -OEChem-05102315252D

 37 38  0     1  0  0  0  0  0999 V2000
    4.2690   -0.8450    0.0000 O   0  0  0  0  0  0  0  0  0  0  0  0
    6.0010   -0.8450    0.0000 O   0  0  0  0  0  0  0  0  0  0  0  0
    4.2690   -3.8450    0.0000 O   0  0  0  0  0  0  0  0  0  0  0  0
    2.5369   -2.8450    0.0000 O   0  0  0  0  0  0  0  0  0  0  0  0
    6.0010   -2.8450    0.0000 O   0  0  0  0  0  0  0  0  0  0  0  0
    7.7331    4.1550    0.0000 N   0  0  0  0  0  0  0  0  0  0  0  0
    4.2690   -2.8450    0.0000 C   0  0  2  0  0  0  0  0  0  0  0  0
    3.4030   -2.3450    0.0000 C   0  0  2  0  0  0  0  0  0  0  0  0
    5.1350   -2.3450    0.0000 C   0  0  2  0  0  0  0  0  0  0  0  0
    3.4030   -1.3450    0.0000 C   0  0  2  0  0  0  0  0  0  0  0  0
    5.1350   -1.3450    0.0000 C   0  0  1  0  0  0  0  0  0  0  0  0
    2.5369   -0.8450    0.0000 C   0  0  0  0  0  0  0  0  0  0  0  0
    6.0010    0.1550    0.0000 C   0  0  0  0  0  0  0  0  0  0  0  0
    6.8671    0.6550    0.0000 C   0  0  0  0  0  0  0  0  0  0  0  0
    5.1350    0.6550    0.0000 C   0  0  0  0  0  0  0  0  0  0  0  0
    6.0010    2.1550    0.0000 C   0  0  0  0  0  0  0  0  0  0  0  0
    6.8671    1.6550    0.0000 C   0  0  0  0  0  0  0  0  0  0  0  0
    5.1350    1.6550    0.0000 C   0  0  0  0  0  0  0  0  0  0  0  0
    6.0010    3.1550    0.0000 C   0  0  0  0  0  0  0  0  0  0  0  0
    6.8671    3.6550    0.0000 C   0  0  0  0  0  0  0  0  0  0  0  0
    3.7320   -3.1550    0.0000 H   0  0  0  0  0  0  0  0  0  0  0  0
    3.4030   -2.9650    0.0000 H   0  0  0  0  0  0  0  0  0  0  0  0
    5.1350   -2.9650    0.0000 H   0  0  0  0  0  0  0  0  0  0  0  0
    3.4030   -0.7250    0.0000 H   0  0  0  0  0  0  0  0  0  0  0  0
    5.1350   -0.7250    0.0000 H   0  0  0  0  0  0  0  0  0  0  0  0
    2.8469   -0.3081    0.0000 H   0  0  0  0  0  0  0  0  0  0  0  0
    2.0000   -0.5350    0.0000 H   0  0  0  0  0  0  0  0  0  0  0  0
    2.2269   -1.3819    0.0000 H   0  0  0  0  0  0  0  0  0  0  0  0
    3.7320   -4.1550    0.0000 H   0  0  0  0  0  0  0  0  0  0  0  0
    2.0000   -2.5350    0.0000 H   0  0  0  0  0  0  0  0  0  0  0  0
    6.0010   -3.4650    0.0000 H   0  0  0  0  0  0  0  0  0  0  0  0
    7.4040    0.3450    0.0000 H   0  0  0  0  0  0  0  0  0  0  0  0
    4.5981    0.3450    0.0000 H   0  0  0  0  0  0  0  0  0  0  0  0
    7.4040    1.9650    0.0000 H   0  0  0  0  0  0  0  0  0  0  0  0
    4.5981    1.9650    0.0000 H   0  0  0  0  0  0  0  0  0  0  0  0
    5.7890    3.7376    0.0000 H   0  0  0  0  0  0  0  0  0  0  0  0
    5.3905    3.0473    0.0000 H   0  0  0  0  0  0  0  0  0  0  0  0
  1 10  1  0  0  0  0
  1 11  1  0  0  0  0
 11  2  1  1  0  0  0
  2 13  1  0  0  0  0
  7  3  1  6  0  0  0
  3 29  1  0  0  0  0
  8  4  1  1  0  0  0
  4 30  1  0  0  0  0
  9  5  1  6  0  0  0
  5 31  1  0  0  0  0
  6 20  3  0  0  0  0
  7  8  1  0  0  0  0
  7  9  1  0  0  0  0
  7 21  1  0  0  0  0
  8 10  1  0  0  0  0
  8 22  1  0  0  0  0
  9 11  1  0  0  0  0
  9 23  1  0  0  0  0
 10 12  1  6  0  0  0
 10 24  1  0  0  0  0
 11 25  1  0  0  0  0
 12 26  1  0  0  0  0
 12 27  1  0  0  0  0
 12 28  1  0  0  0  0
 13 14  2  0  0  0  0
 13 15  1  0  0  0  0
 14 17  1  0  0  0  0
 14 32  1  0  0  0  0
 15 18  2  0  0  0  0
 15 33  1  0  0  0  0
 16 17  2  0  0  0  0
 16 18  1  0  0  0  0
 16 19  1  0  0  0  0
 17 34  1  0  0  0  0
 18 35  1  0  0  0  0
 19 20  1  0  0  0  0
 19 36  1  0  0  0  0
 19 37  1  0  0  0  0
M  END
> <PUBCHEM_COMPOUND_CID>
129556

> <PUBCHEM_COMPOUND_CANONICALIZED>
1

> <PUBCHEM_CACTVS_COMPLEXITY>
360

> <PUBCHEM_CACTVS_HBOND_ACCEPTOR>
6

> <PUBCHEM_CACTVS_HBOND_DONOR>
3

> <PUBCHEM_CACTVS_ROTATABLE_BOND>
3

> <PUBCHEM_CACTVS_SUBSKEYS>
AAADceByOAAAAAAAAAAAAAAAAAAAAAAAAAA0QAAAAAAAAAABAAAAHgAACAAADBSxmAMyDoAABgCQBiBCAAACCAAgIAAIiAAGCIgdtiKEMRqieCClwBEPqA/A4IwOIAAAAAAAAABAAAAAAAAAAAAAAAAAAA==

> <PUBCHEM_IUPAC_OPENEYE_NAME>
2-[4-[(2S,3R,4R,5R,6S)-3,4,5-trihydroxy-6-methyl-tetrahydropyran-2-yl]oxyphenyl]acetonitrile

> <PUBCHEM_IUPAC_CAS_NAME>
2-[4-[[(2S,3R,4R,5R,6S)-3,4,5-trihydroxy-6-methyl-2-oxanyl]oxy]phenyl]acetonitrile

> <PUBCHEM_IUPAC_NAME_MARKUP>
2-[4-[(2<I>S</I>,3<I>R</I>,4<I>R</I>,5<I>R</I>,6<I>S</I>)-3,4,5-trihydroxy-6-methyloxan-2-yl]oxyphenyl]acetonitrile

> <PUBCHEM_IUPAC_NAME>
2-[4-[(2S,3R,4R,5R,6S)-3,4,5-trihydroxy-6-methyloxan-2-yl]oxyphenyl]acetonitrile

> <PUBCHEM_IUPAC_SYSTEMATIC_NAME>
2-[4-[(2S,3R,4R,5R,6S)-6-methyl-3,4,5-tris(oxidanyl)oxan-2-yl]oxyphenyl]ethanenitrile

> <PUBCHEM_IUPAC_TRADITIONAL_NAME>
2-[4-[(2S,3R,4R,5R,6S)-3,4,5-trihydroxy-6-methyl-tetrahydropyran-2-yl]oxyphenyl]acetonitrile

> <PUBCHEM_IUPAC_INCHI>
InChI=1S/C14H17NO5/c1-8-11(16)12(17)13(18)14(19-8)20-10-4-2-9(3-5-10)6-7-15/h2-5,8,11-14,16-18H,6H2,1H3/t8-,11-,12+,13+,14-/m0/s1

> <PUBCHEM_IUPAC_INCHIKEY>
OBJREHLZEIEGDU-CNJBRALLSA-N

> <PUBCHEM_XLOGP3>
0.3

> <PUBCHEM_EXACT_MASS>
279.11067264

> <PUBCHEM_MOLECULAR_FORMULA>
C14H17NO5

> <PUBCHEM_MOLECULAR_WEIGHT>
279.29

> <PUBCHEM_OPENEYE_CAN_SMILES>
CC1C(C(C(C(O1)OC2=CC=C(C=C2)CC#N)O)O)O

> <PUBCHEM_OPENEYE_ISO_SMILES>
C[C@H]1[C@@H]([C@H]([C@H]([C@@H](O1)OC2=CC=C(C=C2)CC#N)O)O)O

> <PUBCHEM_CACTVS_TPSA>
103

> <PUBCHEM_MONOISOTOPIC_WEIGHT>
279.11067264

> <PUBCHEM_TOTAL_CHARGE>
0

> <PUBCHEM_HEAVY_ATOM_COUNT>
20

> <PUBCHEM_ATOM_DEF_STEREO_COUNT>
5

> <PUBCHEM_ATOM_UDEF_STEREO_COUNT>
0

> <PUBCHEM_BOND_DEF_STEREO_COUNT>
0

> <PUBCHEM_BOND_UDEF_STEREO_COUNT>
0

> <PUBCHEM_ISOTOPIC_ATOM_COUNT>
0

> <PUBCHEM_COMPONENT_COUNT>
1

> <PUBCHEM_CACTVS_TAUTO_COUNT>
1

> <PUBCHEM_COORDINATE_TYPE>
1
5
255

> <PUBCHEM_BONDANNOTATIONS>
10  12  6
13  14  8
13  15  8
14  17  8
15  18  8
16  17  8
16  18  8
11  2  5
7  3  6
8  4  5
9  5  6

$$$$
